*Heading
** Job name: KW_51 Model name: KW51_Static_Load
** Generated by: Abaqus/CAE 2022
*Preprint, echo=NO, model=NO, history=NO, contact=NO
** ----------------------------------------------------------------
** 
** PART INSTANCE: Deck_Plate-1
** 
*System
          0.,          0.,          0.,          1.,          0.,          0.
          0.,6.12323399573677e-17,          1.
*Node
      1,   113.656998,           0.,           0.
      2,   113.656998,   1.85000002,           0.
      3,   111.156998,   1.85000002,           0.
      4,   111.156998,           0.,           0.
      5,   113.656998,    2.6400001,           0.
      6,   111.156998,    2.6400001,           0.
      7,   113.656998,   3.43000007,           0.
      8,   111.156998,   3.43000007,           0.
      9,   113.656998,   4.21999979,           0.
     10,   111.156998,   4.21999979,           0.
     11,   113.656998,   5.01000023,           0.
     12,   111.156998,   5.01000023,           0.
     13,   113.656998,   5.80000019,           0.
     14,   111.156998,   5.80000019,           0.
     15,   113.656998,   6.59000015,           0.
     16,   111.156998,   6.59000015,           0.
     17,   113.656998,   7.38000011,           0.
     18,   111.156998,   7.38000011,           0.
     19,   113.656998,   8.17000008,           0.
     20,   111.156998,   8.17000008,           0.
** ... 442 like lines cut
*Element, type=S4R
1, 1, 2, 3, 4
2, 2, 5, 6, 3
3, 5, 7, 8, 6
4,  7,  9, 10,  8
5,  9, 11, 12, 10
6, 11, 13, 14, 12
7, 13, 15, 16, 14
8, 15, 17, 18, 16
 9, 17, 19, 20, 18
10, 19, 21, 22, 20
11, 21, 23, 24, 22
12, 23, 25, 26, 24
13, 25, 27, 28, 26
14,  4,  3, 29, 30
15,  3,  6, 31, 29
16,  6,  8, 32, 31
17,  8, 10, 33, 32
18, 10, 12, 34, 33
19, 12, 14, 35, 34
20, 14, 16, 36, 35
** ... 396 like lines cut
*Nset, nset=Deck_Plate-1_Deck_plate, generate
   1,  462,    1
*Elset, elset=Deck_Plate-1_Deck_plate, generate
   1,  416,    1
** Section: Deck_Plate_section
*Shell Section, elset=Deck_Plate-1_Deck_plate, material=Steel, offset=SNEG
0.015, 5
** ----------------------------------------------------------------
** 
** PART INSTANCE: Ballast-1
** 
*System
-2.8421709430404e-14,          0.,          0.,0.999999999999972,          0.,          0.
-2.8421709430404e-14,-1.83697019872103e-16,          1.
*Node
    463,         115.,        10.54,           0.
    464,           0.,        10.54,           0.
    465,           0.,         9.75,           0.
    466,         115.,         9.75,           0.
    467,           0.,   8.96000004,           0.
    468,         115.,   8.96000004,           0.
    469,           0.,   8.17000008,           0.
    470,         115.,   8.17000008,           0.
    471,           0.,   7.38000011,           0.
    472,         115.,   7.38000011,           0.
    473,           0.,   6.59000015,           0.
    474,         115.,   6.59000015,           0.
    475,           0.,   5.80000019,           0.
    476,         115.,   5.80000019,           0.
    477,           0.,   5.01000023,           0.
    478,         115.,   5.01000023,           0.
    479,           0.,   4.21999979,           0.
    480,         115.,   4.21999979,           0.
    481,           0.,   3.43000007,           0.
    482,         115.,   3.43000007,           0.
** ... 526 like lines cut
*Element, type=S4R
417, 463, 491, 564, 466
418, 491, 492, 563, 564
419, 492, 493, 562, 563
420, 493, 494, 561, 562
421, 494, 495, 560, 561
422, 495, 496, 559, 560
423, 496, 497, 558, 559
424, 497, 498, 557, 558
425, 498, 499, 556, 557
426, 499, 500, 555, 556
427, 500, 501, 554, 555
428, 501, 502, 553, 554
429, 502, 503, 552, 553
430, 503, 504, 551, 552
431, 504, 505, 550, 551
432, 505, 506, 549, 550
433, 506, 507, 548, 549
434, 507, 508, 547, 548
435, 508, 509, 546, 547
436, 509, 510, 545, 546
** ... 474 like lines cut
*Nset, nset=Ballast-1_Ballast_Set, generate
 463, 1008,    1
*Elset, elset=Ballast-1_Ballast_Set, generate
 417,  910,    1
** Section: Ballast_Section
*Shell Section, elset=Ballast-1_Ballast_Set, material=Ballast, offset=SPOS
0.6, 5
** ----------------------------------------------------------------
** 
** PART INSTANCE: Rail-1
** 
*System
        57.5,          0., 1129.191464,        58.5,          0., 1129.191464
        57.5,6.12323399573677e-17, 1128.191464
*Node
   1009,         57.5,   1119.52429,           0.
   1010,           0.,        1121.,           0.
   1011,        -57.5,   1119.52429,           0.
   1012,         57.5,   1120.95618,           0.
   1013,           0.,   1122.43005,           0.
   1014,        -57.5,   1120.95618,           0.
   1015,           0.,        1125.,           0.
   1016,        -57.5,   1123.52954,           0.
   1017,         57.5,   1123.52954,           0.
   1018,           0.,   1126.43005,           0.
   1019,        -57.5,   1124.96143,           0.
   1020,         57.5,   1124.96143,           0.
   1021,   54.4761353,   1119.67554,           0.
   1022,   51.4518738,    1119.8186,           0.
   1023,   48.4272346,   1119.95349,           0.
   1024,   45.4022446,    1120.0802,           0.
   1025,   42.3769226,   1120.19873,           0.
   1026,   39.3512917,   1120.30908,           0.
   1027,   36.3253746,   1120.41125,           0.
   1028,   33.2991905,   1120.50537,           0.
** ... 136 like lines cut
*Element, type=B31
911, 1009, 1021
912, 1021, 1022
913, 1022, 1023
914, 1023, 1024
915, 1024, 1025
916, 1025, 1026
917, 1026, 1027
918, 1027, 1028
919, 1028, 1029
920, 1029, 1030
921, 1030, 1031
922, 1031, 1032
923, 1032, 1033
924, 1033, 1034
925, 1034, 1035
926, 1035, 1036
927, 1036, 1037
928, 1037, 1038
929, 1038, 1010
930, 1010, 1039
** ... 132 like lines cut
*Nset, nset=Rail-1_Set-1
1009,1010,1015,1017,1021,1022,1023,1024,1025,1026,1027,1028,1029,1030,1031,1032
1033,1034,1035,1036,1037,1038,1111,1112,1113,1114,1115,1116,1117,1118,1119,1120
1121,1122,1123,1124,1125,1126,1127,1128
*Elset, elset=Rail-1_Set-1
 911, 912, 913, 914, 915, 916, 917, 918, 919, 920, 921, 922, 923, 924, 925, 926
 927, 928, 929,1006,1007,1008,1009,1010,1011,1012,1013,1014,1015,1016,1017,1018
1019,1020,1021,1022,1023,1024
*Nset, nset=Rail-1_Set-2, generate
1009, 1164,    1
*Elset, elset=Rail-1_Set-2, generate
 911, 1062,    1
*Nset, nset=Rail-1_Set-3, generate
1009, 1164,    1
*Elset, elset=Rail-1_Set-3, generate
 911, 1062,    1
** Section: Rail_Section  Profile: Rail_Profile
*Beam Section, elset=Rail-1_Set-3, material=Rail_Steel, temperature=GRADIENTS, section=I
0., 0.172, 0.15, 0.05, 0.02, 0.05, 0.017
0.,-6.12323e-17,1.
** ----------------------------------------------------------------
** 
** PART INSTANCE: Combined_Part-1
** 
*System
*Node
   1165,   113.656998,           0.,   10.5500002
   1166,   113.656998,           0.,   9.76000023
   1167,   113.656998,           0.,   8.97000027
   1168,   113.656998,           0.,   8.18000031
   1169,   113.656998,           0.,   7.38999987
   1170,   113.656998,           0.,    6.5999999
   1171,   113.656998,           0.,   5.80999994
   1172,   113.656998,           0.,   5.01999998
   1173,   113.656998,           0.,   4.23000002
   1174,   113.656998,           0.,   3.44000006
   1175,   113.656998,           0.,    2.6500001
   1176,   113.656998,           0.,   1.86000001
   1177,   113.656998,           0.,           0.
   1178,   111.156998,           0.,           0.
   1179,   111.156998,           0.,   1.86000001
   1180,   107.323997,           0.,   1.86000001
   1181,   107.323997,           0.,    2.6500001
   1182,   103.490997,           0.,    2.6500001
   1183,   103.490997,           0.,   3.44000006
   1184,   99.6579971,           0.,   3.44000006
** ... 698 like lines cut
*Element, type=B31
1063, 1165, 1166
1064, 1166, 1167
1065, 1167, 1168
1066, 1168, 1169
1067, 1169, 1170
1068, 1170, 1171
1069, 1171, 1172
1070, 1172, 1173
1071, 1173, 1174
1072, 1174, 1175
1073, 1175, 1176
1074, 1176, 1177
1075, 1178, 1177
1076, 1179, 1178
1077, 1180, 1179
1078, 1181, 1180
1079, 1182, 1181
1080, 1183, 1182
1081, 1184, 1183
1082, 1185, 1184
** ... 1151 like lines cut
*Nset, nset=Combined_Part-1__PickedSet60_#9
1243,1312,1313,1314,1315,1316,1317,1318,1330,1333,1363,1440,1441,1443,1444,1445
1446,1466,1467,1496,1507,1518,1519,1538,1562,1563,1566,1567,1659,1660,1661,1662
1663,1664,1668,1669,1670,1671,1672,1673,1674,1707,1708,1709,1710,1711,1712,1721
1725,1744,1757,1758,1759,1760,1761,1762,1763,1764,1765,1766,1767,1792,1793,1794
1795,1796,1815,1816,1817,1818,1819,1832,1833,1834,1835,1836,1837,1838,1847,1848
1852,1853,1854,1875,1876,1877
*Elset, elset=Combined_Part-1__PickedSet60_#9
 1263, 1264, 1265, 1266, 1267, 1268, 1269, 1270, 1271, 1272, 1277, 1278, 1279, 1280, 1281, 1282
 1283, 1284, 1285, 1541, 1542, 1543, 1544, 1545, 1546, 1547, 1558, 1559, 1564, 1565, 1628, 1629
 1644, 1645, 1646, 1647, 1658, 1659, 1660, 1661, 1662, 1663, 1664, 1712, 1713, 1714, 1715, 1778
 1779, 1780, 1781, 1782, 1783, 1784, 1785, 1875, 1876, 1877, 1878, 1879, 1880, 1881, 1882, 1897
 1898, 1926, 1927, 1928, 1929, 1930, 1931, 1932, 1943, 1944, 1970, 1971, 1992, 1993, 1994, 1995
 2137, 2138, 2139, 2140
*Nset, nset=Combined_Part-1__PickedSet61_#10
1243,1312,1313,1314,1315,1316,1317,1318,1330,1333,1363,1440,1441,1443,1444,1445
1446,1466,1467,1496,1507,1518,1519,1538,1562,1563,1566,1567,1659,1660,1661,1662
1663,1664,1668,1669,1670,1671,1672,1673,1674,1707,1708,1709,1710,1711,1712,1721
1725,1744,1757,1758,1759,1760,1761,1762,1763,1764,1765,1766,1767,1792,1793,1794
1795,1796,1815,1816,1817,1818,1819,1832,1833,1834,1835,1836,1837,1838,1847,1848
1852,1853,1854,1875,1876,1877
*Elset, elset=Combined_Part-1__PickedSet61_#10
 1263, 1264, 1265, 1266, 1267, 1268, 1269, 1270, 1271, 1272, 1277, 1278, 1279, 1280, 1281, 1282
 1283, 1284, 1285, 1541, 1542, 1543, 1544, 1545, 1546, 1547, 1558, 1559, 1564, 1565, 1628, 1629
 1644, 1645, 1646, 1647, 1658, 1659, 1660, 1661, 1662, 1663, 1664, 1712, 1713, 1714, 1715, 1778
 1779, 1780, 1781, 1782, 1783, 1784, 1785, 1875, 1876, 1877, 1878, 1879, 1880, 1881, 1882, 1897
 1898, 1926, 1927, 1928, 1929, 1930, 1931, 1932, 1943, 1944, 1970, 1971, 1992, 1993, 1994, 1995
 2137, 2138, 2139, 2140
*Nset, nset=Combined_Part-1__PickedSet62_#11
1202,1205,1297,1300,1312,1314,1315,1318,1321,1332,1333,1361,1362,1363,1364,1386
1410,1441,1442,1443,1446,1457,1467,1496,1507,1508,1518,1538,1539,1562,1564,1567
1581,1596,1653,1654,1655,1656,1657,1658,1675,1676,1677,1678,1679,1680,1681,1682
1683,1684,1685,1686,1687,1688,1689,1690,1691,1692,1693,1694,1695,1696,1697,1698
1699,1700,1701,1702,1703,1704,1705,1706,1713,1714,1715,1716,1717,1718,1719,1720
1726,1727,1728,1729,1730,1731,1732,1733,1734,1735,1736,1737,1738,1739,1740,1745
1746,1747,1748,1749,1750,1751,1752,1753,1754,1755,1756,1768,1769,1770,1771,1772
1773,1774,1775,1776,1777,1778,1779,1780,1781,1782,1783,1784,1785,1786,1787,1788
1789,1790,1791,1797,1798,1799,1800,1801,1802,1803,1804,1805,1806,1807,1808,1809
1810,1811,1812,1813,1814,1820,1821,1822,1823,1824,1825,1826,1827,1828,1829,1830
1831,1839,1840,1841,1842,1843,1844,1845,1846,1849,1850,1851,1855,1856,1857,1858
1859,1860,1861,1862,1863,1864,1865,1866,1867,1868,1869,1870,1871,1878,1879,1880
1881,1882
*Elset, elset=Combined_Part-1__PickedSet62_#11
 1256, 1257, 1258, 1259, 1260, 1261, 1262, 1316, 1317, 1318, 1319, 1320, 1321, 1322, 1323, 1324
 1325, 1326, 1327, 1328, 1329, 1330, 1331, 1332, 1333, 1334, 1335, 1396, 1397, 1398, 1399, 1400
 1401, 1402, 1403, 1404, 1405, 1406, 1407, 1408, 1409, 1410, 1411, 1412, 1413, 1414, 1415, 1548
 1549, 1550, 1551, 1552, 1553, 1554, 1555, 1556, 1557, 1566, 1567, 1568, 1569, 1609, 1610, 1611
 1612, 1613, 1614, 1615, 1616, 1617, 1618, 1619, 1620, 1621, 1622, 1630, 1631, 1632, 1633, 1634
 1635, 1636, 1637, 1638, 1639, 1640, 1641, 1642, 1643, 1716, 1717, 1718, 1719, 1720, 1721, 1722
 1744, 1745, 1746, 1747, 1748, 1749, 1750, 1751, 1752, 1753, 1754, 1755, 1756, 1757, 1771, 1772
 1773, 1774, 1775, 1776, 1777, 1830, 1831, 1832, 1833, 1834, 1835, 1836, 1837, 1838, 1839, 1840
 1841, 1842, 1843, 1868, 1869, 1870, 1871, 1872, 1873, 1874, 1883, 1884, 1885, 1886, 1887, 1888
 1889, 1890, 1891, 1892, 1893, 1894, 1895, 1896, 1933, 1934, 1935, 1936, 1937, 1938, 1939, 1940
 1941, 1942, 1972, 1973, 1974, 1975, 1996, 1997, 1998, 1999, 2000, 2001, 2002, 2003, 2004, 2005
 2006, 2007, 2008, 2098, 2099, 2100, 2101, 2102, 2103, 2104, 2141, 2142, 2143, 2144, 2145, 2146
*Nset, nset=Combined_Part-1__PickedSet63_#12
1202,1205,1297,1300,1312,1314,1315,1318,1321,1332,1333,1361,1362,1363,1364,1386
1410,1441,1442,1443,1446,1457,1467,1496,1507,1508,1518,1538,1539,1562,1564,1567
1581,1596,1653,1654,1655,1656,1657,1658,1675,1676,1677,1678,1679,1680,1681,1682
1683,1684,1685,1686,1687,1688,1689,1690,1691,1692,1693,1694,1695,1696,1697,1698
1699,1700,1701,1702,1703,1704,1705,1706,1713,1714,1715,1716,1717,1718,1719,1720
1726,1727,1728,1729,1730,1731,1732,1733,1734,1735,1736,1737,1738,1739,1740,1745
1746,1747,1748,1749,1750,1751,1752,1753,1754,1755,1756,1768,1769,1770,1771,1772
1773,1774,1775,1776,1777,1778,1779,1780,1781,1782,1783,1784,1785,1786,1787,1788
1789,1790,1791,1797,1798,1799,1800,1801,1802,1803,1804,1805,1806,1807,1808,1809
1810,1811,1812,1813,1814,1820,1821,1822,1823,1824,1825,1826,1827,1828,1829,1830
1831,1839,1840,1841,1842,1843,1844,1845,1846,1849,1850,1851,1855,1856,1857,1858
1859,1860,1861,1862,1863,1864,1865,1866,1867,1868,1869,1870,1871,1878,1879,1880
1881,1882
*Elset, elset=Combined_Part-1__PickedSet63_#12
 1256, 1257, 1258, 1259, 1260, 1261, 1262, 1316, 1317, 1318, 1319, 1320, 1321, 1322, 1323, 1324
 1325, 1326, 1327, 1328, 1329, 1330, 1331, 1332, 1333, 1334, 1335, 1396, 1397, 1398, 1399, 1400
 1401, 1402, 1403, 1404, 1405, 1406, 1407, 1408, 1409, 1410, 1411, 1412, 1413, 1414, 1415, 1548
 1549, 1550, 1551, 1552, 1553, 1554, 1555, 1556, 1557, 1566, 1567, 1568, 1569, 1609, 1610, 1611
 1612, 1613, 1614, 1615, 1616, 1617, 1618, 1619, 1620, 1621, 1622, 1630, 1631, 1632, 1633, 1634
 1635, 1636, 1637, 1638, 1639, 1640, 1641, 1642, 1643, 1716, 1717, 1718, 1719, 1720, 1721, 1722
 1744, 1745, 1746, 1747, 1748, 1749, 1750, 1751, 1752, 1753, 1754, 1755, 1756, 1757, 1771, 1772
 1773, 1774, 1775, 1776, 1777, 1830, 1831, 1832, 1833, 1834, 1835, 1836, 1837, 1838, 1839, 1840
 1841, 1842, 1843, 1868, 1869, 1870, 1871, 1872, 1873, 1874, 1883, 1884, 1885, 1886, 1887, 1888
 1889, 1890, 1891, 1892, 1893, 1894, 1895, 1896, 1933, 1934, 1935, 1936, 1937, 1938, 1939, 1940
 1941, 1942, 1972, 1973, 1974, 1975, 1996, 1997, 1998, 1999, 2000, 2001, 2002, 2003, 2004, 2005
 2006, 2007, 2008, 2098, 2099, 2100, 2101, 2102, 2103, 2104, 2141, 2142, 2143, 2144, 2145, 2146
*Nset, nset=Combined_Part-1_Arch_Connector_Set
1313,1316,1317,1444,1445,1466,1519,1563,1665,1666,1667,1722,1723,1724,1741,1742
1743,1872,1873,1874
*Elset, elset=Combined_Part-1_Arch_Connector_Set
 1273, 1274, 1275, 1276, 1560, 1561, 1562, 1563, 1624, 1625, 1626, 1627, 2105, 2106, 2107, 2108
*Nset, nset=Combined_Part-1__PickedSet3_#6
1313,1316,1317,1444,1445,1466,1519,1563,1665,1666,1667,1722,1723,1724,1741,1742
1743,1872,1873,1874
*Elset, elset=Combined_Part-1__PickedSet3_#6
 1273, 1274, 1275, 1276, 1560, 1561, 1562, 1563, 1624, 1625, 1626, 1627, 2105, 2106, 2107, 2108
*Nset, nset=Combined_Part-1_Stiffner_Set
1165,1166,1167,1168,1169,1170,1171,1172,1173,1174,1175,1176,1179,1180,1181,1182
1183,1184,1185,1186,1187,1188,1189,1190,1191,1192,1193,1194,1195,1196,1197,1198
1199,1200,1201,1206,1207,1208,1211,1212,1213,1214,1215,1216,1217,1218,1219,1220
1221,1222,1223,1224,1225,1226,1227,1228,1229,1230,1231,1232,1233,1234,1235,1236
1237,1238,1239,1240,1241,1242,1245,1246,1247,1248,1249,1250,1251,1252,1253,1254
1255,1256,1259,1260,1261,1262,1263,1264,1265,1266,1267,1268,1269,1270,1271,1274
1275,1276,1277,1278,1279,1280,1281,1282,1283,1284,1285,1286,1287,1288,1289,1290
1291,1292,1293,1294,1295,1296,1301,1302,1303,1304,1305,1306,1307,1308,1309,1310
1311,1322,1323,1324,1325,1326,1327,1328,1329,1334,1335,1336,1337,1338,1341,1342
1343,1344,1345,1346,1347,1348,1349,1350,1351,1352,1353,1354,1355,1356,1357,1358
1359,1360,1366,1367,1368,1369,1370,1371,1372,1373,1374,1375,1376,1377,1378,1379
1380,1381,1382,1383,1384,1385,1389,1390,1391,1392,1393,1394,1395,1396,1397,1398
1399,1400,1401,1402,1403,1404,1405,1406,1407,1408,1409,1412,1413,1414,1415,1416
1417,1418,1419,1420,1421,1422,1423,1426,1427,1428,1429,1430,1431,1432,1433,1434
1435,1436,1437,1438,1447,1448,1449,1450,1451,1452,1453,1454,1458,1459,1460,1461
1462,1463,1464,1465,1468,1470,1471,1472,1473,1474,1475,1476,1477,1478,1479,1481
1482,1483,1484,1485,1486,1487,1488,1489,1490,1491,1492,1493,1494,1495,1497,1498
1499,1500,1501,1502,1504,1505,1506,1510,1511,1512,1513,1514,1515,1516,1520,1521
1522,1523,1524,1525,1526,1527,1528,1529,1530,1531,1532,1533,1534,1535,1536,1541
1542,1543,1544,1545,1546,1547,1548,1549,1550,1551,1552,1553,1554,1555,1556,1557
** ... 5 like lines cut
*Elset, elset=Combined_Part-1_Stiffner_Set
 1077, 1079, 1081, 1083, 1085, 1087, 1089, 1091, 1093, 1095, 1097, 1104, 1110, 1121, 1122, 1124
 1125, 1127, 1128, 1129, 1131, 1132, 1133, 1135, 1136, 1137, 1139, 1140, 1141, 1143, 1144, 1145
 1147, 1148, 1149, 1151, 1152, 1153, 1155, 1156, 1157, 1159, 1160, 1161, 1163, 1167, 1169, 1171
 1173, 1175, 1177, 1179, 1181, 1183, 1185, 1187, 1192, 1207, 1209, 1211, 1213, 1215, 1217, 1219
 1221, 1223, 1225, 1227, 1234, 1237, 1239, 1241, 1243, 1245, 1247, 1249, 1251, 1252, 1255, 1291
 1296, 1299, 1300, 1336, 1339, 1341, 1346, 1352, 1354, 1356, 1358, 1360, 1362, 1364, 1365, 1367
 1369, 1371, 1372, 1374, 1376, 1378, 1379, 1381, 1383, 1385, 1386, 1388, 1390, 1392, 1418, 1420
 1422, 1424, 1426, 1428, 1430, 1432, 1434, 1436, 1438, 1440, 1442, 1444, 1446, 1448, 1450, 1456
 1467, 1469, 1471, 1472, 1474, 1475, 1477, 1478, 1480, 1481, 1483, 1484, 1486, 1487, 1489, 1490
 1492, 1493, 1495, 1496, 1498, 1502, 1504, 1506, 1508, 1510, 1512, 1514, 1516, 1518, 1520, 1522
 1527, 1571, 1573, 1575, 1577, 1579, 1581, 1583, 1585, 1586, 1589, 1595, 1600, 1603, 1604, 1606
 1607, 1608, 1648, 1652, 1654, 1656, 1657, 1665, 1667, 1668, 1669, 1670, 1671, 1674, 1676, 1678
 1680, 1682, 1684, 1686, 1688, 1690, 1692, 1694, 1697, 1699, 1701, 1703, 1705, 1707, 1709, 1711
 1724, 1726, 1728, 1730, 1732, 1734, 1737, 1739, 1741, 1743, 1760, 1767, 1786, 1789, 1791, 1793
 1795, 1797, 1798, 1800, 1802, 1803, 1805, 1807, 1808, 1810, 1812, 1813, 1815, 1817, 1818, 1820
 1822, 1823, 1824, 1825, 1826, 1827, 1828, 1846, 1848, 1850, 1852, 1854, 1856, 1858, 1860, 1862
 1864, 1866, 1900, 1902, 1904, 1906, 1908, 1910, 1912, 1914, 1916, 1918, 1920, 1922, 1945, 1948
 1950, 1952, 1954, 1956, 1958, 1960, 1962, 1964, 1966, 1978, 1980, 1983, 1985, 1987, 1989, 1991
 2009, 2011, 2012, 2014, 2015, 2016, 2017, 2022, 2027, 2029, 2031, 2032, 2035, 2037, 2039, 2041
 2043, 2045, 2047, 2049, 2051, 2054, 2056, 2058, 2060, 2062, 2064, 2066, 2068, 2072, 2074, 2076
** ... 4 like lines cut
*Nset, nset=Combined_Part-1_U_Stiffner_Orientation
1165,1166,1167,1168,1169,1170,1171,1172,1173,1174,1175,1176,1179,1180,1181,1182
1183,1184,1185,1186,1187,1188,1189,1190,1191,1192,1193,1194,1195,1196,1197,1198
1199,1200,1201,1206,1207,1208,1211,1212,1213,1214,1215,1216,1217,1218,1219,1220
1221,1222,1223,1224,1225,1226,1227,1228,1229,1230,1231,1232,1233,1234,1235,1236
1237,1238,1239,1240,1241,1242,1245,1246,1247,1248,1249,1250,1251,1252,1253,1254
1255,1256,1259,1260,1261,1262,1263,1264,1265,1266,1267,1268,1269,1270,1271,1274
1275,1276,1277,1278,1279,1280,1281,1282,1283,1284,1285,1286,1287,1288,1289,1290
1291,1292,1293,1294,1295,1296,1301,1302,1303,1304,1305,1306,1307,1308,1309,1310
1311,1322,1323,1324,1325,1326,1327,1328,1329,1334,1335,1336,1337,1338,1341,1342
1343,1344,1345,1346,1347,1348,1349,1350,1351,1352,1353,1354,1355,1356,1357,1358
1359,1360,1366,1367,1368,1369,1370,1371,1372,1373,1374,1375,1376,1377,1378,1379
1380,1381,1382,1383,1384,1385,1389,1390,1391,1392,1393,1394,1395,1396,1397,1398
1399,1400,1401,1402,1403,1404,1405,1406,1407,1408,1409,1412,1413,1414,1415,1416
1417,1418,1419,1420,1421,1422,1423,1426,1427,1428,1429,1430,1431,1432,1433,1434
1435,1436,1437,1438,1447,1448,1449,1450,1451,1452,1453,1454,1458,1459,1460,1461
1462,1463,1464,1465,1468,1470,1471,1472,1473,1474,1475,1476,1477,1478,1479,1481
1482,1483,1484,1485,1486,1487,1488,1489,1490,1491,1492,1493,1494,1495,1497,1498
1499,1500,1501,1502,1504,1505,1506,1510,1511,1512,1513,1514,1515,1516,1520,1521
1522,1523,1524,1525,1526,1527,1528,1529,1530,1531,1532,1533,1534,1535,1536,1541
1542,1543,1544,1545,1546,1547,1548,1549,1550,1551,1552,1553,1554,1555,1556,1557
** ... 5 like lines cut
*Elset, elset=Combined_Part-1_U_Stiffner_Orientation
 1077, 1079, 1081, 1083, 1085, 1087, 1089, 1091, 1093, 1095, 1097, 1104, 1110, 1121, 1122, 1124
 1125, 1127, 1128, 1129, 1131, 1132, 1133, 1135, 1136, 1137, 1139, 1140, 1141, 1143, 1144, 1145
 1147, 1148, 1149, 1151, 1152, 1153, 1155, 1156, 1157, 1159, 1160, 1161, 1163, 1167, 1169, 1171
 1173, 1175, 1177, 1179, 1181, 1183, 1185, 1187, 1192, 1207, 1209, 1211, 1213, 1215, 1217, 1219
 1221, 1223, 1225, 1227, 1234, 1237, 1239, 1241, 1243, 1245, 1247, 1249, 1251, 1252, 1255, 1291
 1296, 1299, 1300, 1336, 1339, 1341, 1346, 1352, 1354, 1356, 1358, 1360, 1362, 1364, 1365, 1367
 1369, 1371, 1372, 1374, 1376, 1378, 1379, 1381, 1383, 1385, 1386, 1388, 1390, 1392, 1418, 1420
 1422, 1424, 1426, 1428, 1430, 1432, 1434, 1436, 1438, 1440, 1442, 1444, 1446, 1448, 1450, 1456
 1467, 1469, 1471, 1472, 1474, 1475, 1477, 1478, 1480, 1481, 1483, 1484, 1486, 1487, 1489, 1490
 1492, 1493, 1495, 1496, 1498, 1502, 1504, 1506, 1508, 1510, 1512, 1514, 1516, 1518, 1520, 1522
 1527, 1571, 1573, 1575, 1577, 1579, 1581, 1583, 1585, 1586, 1589, 1595, 1600, 1603, 1604, 1606
 1607, 1608, 1648, 1652, 1654, 1656, 1657, 1665, 1667, 1668, 1669, 1670, 1671, 1674, 1676, 1678
 1680, 1682, 1684, 1686, 1688, 1690, 1692, 1694, 1697, 1699, 1701, 1703, 1705, 1707, 1709, 1711
 1724, 1726, 1728, 1730, 1732, 1734, 1737, 1739, 1741, 1743, 1760, 1767, 1786, 1789, 1791, 1793
 1795, 1797, 1798, 1800, 1802, 1803, 1805, 1807, 1808, 1810, 1812, 1813, 1815, 1817, 1818, 1820
 1822, 1823, 1824, 1825, 1826, 1827, 1828, 1846, 1848, 1850, 1852, 1854, 1856, 1858, 1860, 1862
 1864, 1866, 1900, 1902, 1904, 1906, 1908, 1910, 1912, 1914, 1916, 1918, 1920, 1922, 1945, 1948
 1950, 1952, 1954, 1956, 1958, 1960, 1962, 1964, 1966, 1978, 1980, 1983, 1985, 1987, 1989, 1991
 2009, 2011, 2012, 2014, 2015, 2016, 2017, 2022, 2027, 2029, 2031, 2032, 2035, 2037, 2039, 2041
 2043, 2045, 2047, 2049, 2051, 2054, 2056, 2058, 2060, 2062, 2064, 2066, 2068, 2072, 2074, 2076
** ... 4 like lines cut
*Nset, nset=Combined_Part-1_AllGirder_Set
1165,1166,1167,1168,1169,1170,1171,1172,1173,1174,1175,1176,1177,1178,1179,1180
1181,1182,1183,1184,1185,1186,1187,1188,1189,1190,1191,1192,1193,1194,1195,1196
1197,1198,1199,1200,1201,1202,1203,1204,1205,1206,1207,1208,1209,1210,1211,1212
1213,1214,1215,1216,1217,1218,1219,1220,1221,1222,1223,1224,1225,1226,1227,1228
1229,1230,1231,1232,1233,1234,1235,1236,1237,1238,1239,1240,1241,1242,1243,1244
1245,1246,1247,1248,1249,1250,1251,1252,1253,1254,1255,1256,1257,1258,1259,1260
1261,1262,1263,1264,1265,1266,1267,1268,1269,1270,1271,1272,1273,1274,1275,1276
1277,1278,1279,1280,1281,1282,1283,1284,1285,1286,1287,1288,1289,1290,1291,1292
1293,1294,1295,1296,1297,1298,1299,1300,1301,1302,1303,1304,1305,1306,1307,1308
1309,1310,1311,1319,1320,1321,1322,1323,1324,1325,1326,1327,1328,1329,1330,1331
1332,1334,1335,1336,1337,1338,1339,1340,1341,1342,1343,1344,1345,1346,1347,1348
1349,1350,1351,1352,1353,1354,1355,1356,1357,1358,1359,1360,1361,1362,1364,1365
1366,1367,1368,1369,1370,1371,1372,1373,1374,1375,1376,1377,1378,1379,1380,1381
1382,1383,1384,1385,1386,1387,1388,1389,1390,1391,1392,1393,1394,1395,1396,1397
1398,1399,1400,1401,1402,1403,1404,1405,1406,1407,1408,1409,1410,1411,1412,1413
1414,1415,1416,1417,1418,1419,1420,1421,1422,1423,1424,1425,1426,1427,1428,1429
1430,1431,1432,1433,1434,1435,1436,1437,1438,1439,1440,1442,1447,1448,1449,1450
1451,1452,1453,1454,1455,1456,1457,1458,1459,1460,1461,1462,1463,1464,1465,1468
1469,1470,1471,1472,1473,1474,1475,1476,1477,1478,1479,1480,1481,1482,1483,1484
1485,1486,1487,1488,1489,1490,1491,1492,1493,1494,1495,1497,1498,1499,1500,1501
** ... 9 like lines cut
*Elset, elset=Combined_Part-1_AllGirder_Set
 1063, 1064, 1065, 1066, 1067, 1068, 1069, 1070, 1071, 1072, 1073, 1074, 1075, 1076, 1078, 1080
 1082, 1084, 1086, 1088, 1090, 1092, 1094, 1096, 1098, 1099, 1100, 1101, 1102, 1103, 1105, 1106
 1107, 1108, 1109, 1111, 1112, 1113, 1114, 1115, 1116, 1117, 1118, 1119, 1120, 1123, 1126, 1130
 1134, 1138, 1142, 1146, 1150, 1154, 1158, 1162, 1164, 1165, 1166, 1168, 1170, 1172, 1174, 1176
 1178, 1180, 1182, 1184, 1186, 1188, 1189, 1190, 1191, 1193, 1194, 1195, 1196, 1197, 1198, 1199
 1200, 1201, 1202, 1203, 1204, 1205, 1206, 1208, 1210, 1212, 1214, 1216, 1218, 1220, 1222, 1224
 1226, 1228, 1229, 1230, 1231, 1232, 1233, 1235, 1236, 1238, 1240, 1242, 1244, 1246, 1248, 1250
 1253, 1254, 1286, 1287, 1288, 1289, 1290, 1292, 1293, 1294, 1295, 1297, 1298, 1301, 1302, 1303
 1304, 1305, 1306, 1307, 1308, 1309, 1310, 1311, 1312, 1313, 1314, 1315, 1337, 1338, 1340, 1342
 1343, 1344, 1345, 1347, 1348, 1349, 1350, 1351, 1353, 1355, 1357, 1359, 1361, 1363, 1366, 1368
 1370, 1373, 1375, 1377, 1380, 1382, 1384, 1387, 1389, 1391, 1393, 1394, 1395, 1416, 1417, 1419
 1421, 1423, 1425, 1427, 1429, 1431, 1433, 1435, 1437, 1439, 1441, 1443, 1445, 1447, 1449, 1451
 1452, 1453, 1454, 1455, 1457, 1458, 1459, 1460, 1461, 1462, 1463, 1464, 1465, 1466, 1468, 1470
 1473, 1476, 1479, 1482, 1485, 1488, 1491, 1494, 1497, 1499, 1500, 1501, 1503, 1505, 1507, 1509
 1511, 1513, 1515, 1517, 1519, 1521, 1523, 1524, 1525, 1526, 1528, 1529, 1530, 1531, 1532, 1533
 1534, 1535, 1536, 1537, 1538, 1539, 1540, 1570, 1572, 1574, 1576, 1578, 1580, 1582, 1584, 1587
 1588, 1590, 1591, 1592, 1593, 1594, 1596, 1597, 1598, 1599, 1601, 1602, 1605, 1623, 1649, 1650
 1651, 1653, 1655, 1666, 1672, 1673, 1675, 1677, 1679, 1681, 1683, 1685, 1687, 1689, 1691, 1693
 1695, 1696, 1698, 1700, 1702, 1704, 1706, 1708, 1710, 1723, 1725, 1727, 1729, 1731, 1733, 1735
 1736, 1738, 1740, 1742, 1758, 1759, 1761, 1762, 1763, 1764, 1765, 1766, 1768, 1769, 1770, 1787
** ... 11 like lines cut
*Nset, nset=Combined_Part-1_All_Transvers_Set
1165,1166,1167,1168,1169,1170,1171,1172,1173,1174,1175,1176,1177,1178,1179,1180
1181,1182,1183,1184,1185,1186,1187,1188,1189,1190,1191,1192,1193,1194,1195,1196
1197,1198,1199,1200,1201,1202,1203,1204,1205,1206,1207,1208,1209,1210,1211,1212
1213,1214,1215,1216,1217,1218,1219,1220,1221,1222,1223,1224,1225,1226,1227,1228
1229,1230,1231,1232,1233,1234,1235,1236,1237,1238,1239,1240,1241,1242,1243,1244
1245,1246,1247,1248,1249,1250,1251,1252,1253,1254,1255,1256,1257,1258,1259,1260
1261,1262,1263,1264,1265,1266,1267,1268,1269,1270,1271,1272,1273,1274,1275,1276
1277,1278,1279,1280,1281,1282,1283,1284,1285,1286,1287,1288,1289,1290,1291,1292
1293,1294,1295,1296,1297,1298,1299,1300,1301,1302,1303,1304,1305,1306,1307,1308
1309,1310,1311,1319,1320,1321,1322,1323,1324,1325,1326,1327,1328,1329,1330,1331
1332,1334,1335,1336,1337,1338,1339,1340,1341,1342,1343,1344,1345,1346,1347,1348
1349,1350,1351,1352,1353,1354,1355,1356,1357,1358,1359,1360,1361,1362,1364,1365
1366,1367,1368,1369,1370,1371,1372,1373,1374,1375,1376,1377,1378,1379,1380,1381
1382,1383,1384,1385,1387,1388,1389,1390,1391,1392,1393,1394,1395,1396,1397,1398
1399,1400,1401,1402,1403,1404,1405,1406,1407,1408,1409,1411,1412,1413,1414,1415
1416,1417,1418,1419,1420,1421,1422,1423,1424,1425,1426,1427,1428,1429,1430,1431
1432,1433,1434,1435,1436,1437,1438,1439,1440,1442,1447,1448,1449,1450,1451,1452
1453,1454,1455,1456,1457,1458,1459,1460,1461,1462,1463,1464,1465,1468,1469,1470
1471,1472,1473,1474,1475,1476,1477,1478,1479,1480,1481,1482,1483,1484,1485,1486
1487,1488,1489,1490,1491,1492,1493,1494,1495,1497,1498,1499,1500,1501,1502,1503
** ... 9 like lines cut
*Elset, elset=Combined_Part-1_All_Transvers_Set
 1063, 1064, 1065, 1066, 1067, 1068, 1069, 1070, 1071, 1072, 1073, 1074, 1076, 1078, 1080, 1082
 1084, 1086, 1088, 1090, 1092, 1094, 1096, 1098, 1099, 1103, 1105, 1106, 1107, 1109, 1111, 1112
 1113, 1114, 1115, 1116, 1117, 1118, 1119, 1120, 1123, 1126, 1130, 1134, 1138, 1142, 1146, 1150
 1154, 1158, 1162, 1166, 1168, 1170, 1172, 1174, 1176, 1178, 1180, 1182, 1184, 1186, 1188, 1189
 1191, 1193, 1194, 1195, 1196, 1197, 1198, 1199, 1200, 1201, 1202, 1203, 1204, 1206, 1208, 1210
 1212, 1214, 1216, 1218, 1220, 1222, 1224, 1226, 1228, 1229, 1233, 1235, 1236, 1238, 1240, 1242
 1244, 1246, 1248, 1250, 1253, 1254, 1286, 1290, 1292, 1293, 1294, 1295, 1297, 1298, 1302, 1303
 1304, 1305, 1306, 1307, 1308, 1309, 1310, 1311, 1312, 1314, 1337, 1338, 1340, 1342, 1343, 1345
 1347, 1348, 1349, 1350, 1351, 1353, 1355, 1357, 1359, 1361, 1363, 1366, 1368, 1370, 1373, 1375
 1377, 1380, 1382, 1384, 1387, 1389, 1391, 1393, 1394, 1417, 1419, 1421, 1423, 1425, 1427, 1429
 1431, 1433, 1435, 1437, 1439, 1441, 1443, 1445, 1447, 1449, 1453, 1455, 1457, 1458, 1459, 1460
 1461, 1462, 1463, 1464, 1465, 1466, 1468, 1470, 1473, 1476, 1479, 1482, 1485, 1488, 1491, 1494
 1497, 1501, 1503, 1505, 1507, 1509, 1511, 1513, 1515, 1517, 1519, 1521, 1523, 1524, 1526, 1528
 1529, 1530, 1531, 1532, 1533, 1534, 1535, 1536, 1537, 1538, 1539, 1572, 1574, 1576, 1578, 1580
 1582, 1584, 1587, 1588, 1590, 1594, 1596, 1597, 1598, 1599, 1601, 1602, 1605, 1649, 1650, 1653
 1655, 1673, 1675, 1677, 1679, 1681, 1683, 1685, 1687, 1689, 1691, 1693, 1696, 1698, 1700, 1702
 1704, 1706, 1708, 1710, 1723, 1725, 1727, 1729, 1731, 1733, 1736, 1738, 1740, 1742, 1759, 1761
 1762, 1763, 1764, 1765, 1766, 1769, 1787, 1788, 1790, 1792, 1794, 1796, 1799, 1801, 1804, 1806
 1809, 1811, 1814, 1816, 1819, 1821, 1845, 1847, 1849, 1851, 1853, 1855, 1857, 1859, 1861, 1863
 1865, 1899, 1901, 1903, 1905, 1907, 1909, 1911, 1913, 1915, 1917, 1919, 1921, 1924, 1946, 1947
** ... 7 like lines cut
*Nset, nset=Combined_Part-1_Main_Girders_set
1177,1178,1202,1203,1204,1205,1209,1210,1243,1244,1257,1258,1272,1273,1297,1298
1299,1300,1319,1320,1321,1330,1331,1332,1339,1340,1361,1362,1364,1365,1386,1387
1388,1410,1411,1424,1425,1439,1440,1442,1455,1456,1457,1469,1480,1503,1508,1509
1517,1537,1539,1540,1564,1565,1566,1580,1581,1582,1586,1596,1599,1604,1613,1615
1616,1637,1638,1652
*Elset, elset=Combined_Part-1_Main_Girders_set
 1075, 1100, 1101, 1102, 1108, 1164, 1165, 1190, 1205, 1230, 1231, 1232, 1287, 1288, 1289, 1301
 1313, 1315, 1344, 1395, 1416, 1451, 1452, 1454, 1499, 1500, 1525, 1540, 1570, 1591, 1592, 1593
 1623, 1651, 1666, 1672, 1695, 1735, 1758, 1768, 1770, 1829, 1844, 1867, 1923, 1925, 1968, 1976
 1981, 2020, 2021, 2033, 2070, 2084, 2085, 2111, 2113, 2134, 2154, 2172, 2180, 2199, 2200, 2220
 2221, 2232
*Nset, nset=Combined_Part-1__PickedSet13_#1
1222,1224,1226,1228,1230,1232,1234,1236,1238,1240,1242,1243,1329,1330
*Elset, elset=Combined_Part-1__PickedSet13_#1
1302,1303,1304,1305,1306,1307,1308,1309,1310,1311,1312,1393,1394
*Nset, nset=Combined_Part-1_Set-13
1243,1312,1313,1314,1315,1316,1317,1318,1330,1333,1363,1440,1441,1443,1444,1445
1446,1466,1467,1496,1507,1518,1519,1538,1562,1563,1566,1567,1659,1660,1661,1662
1663,1664,1668,1669,1670,1671,1672,1673,1674,1707,1708,1709,1710,1711,1712,1721
1725,1744,1757,1758,1759,1760,1761,1762,1763,1764,1765,1766,1767,1792,1793,1794
1795,1796,1815,1816,1817,1818,1819,1832,1833,1834,1835,1836,1837,1838,1847,1848
1852,1853,1854,1875,1876,1877
*Elset, elset=Combined_Part-1_Set-13
 1263, 1264, 1265, 1266, 1267, 1268, 1269, 1270, 1271, 1272, 1277, 1278, 1279, 1280, 1281, 1282
 1283, 1284, 1285, 1541, 1542, 1543, 1544, 1545, 1546, 1547, 1558, 1559, 1564, 1565, 1628, 1629
 1644, 1645, 1646, 1647, 1658, 1659, 1660, 1661, 1662, 1663, 1664, 1712, 1713, 1714, 1715, 1778
 1779, 1780, 1781, 1782, 1783, 1784, 1785, 1875, 1876, 1877, 1878, 1879, 1880, 1881, 1882, 1897
 1898, 1926, 1927, 1928, 1929, 1930, 1931, 1932, 1943, 1944, 1970, 1971, 1992, 1993, 1994, 1995
 2137, 2138, 2139, 2140
*Nset, nset=Combined_Part-1_Set-14
1202,1205,1297,1300,1312,1314,1315,1318,1321,1332,1333,1361,1362,1363,1364,1386
1410,1441,1442,1443,1446,1457,1467,1496,1507,1508,1518,1538,1539,1562,1564,1567
1581,1596,1653,1654,1655,1656,1657,1658,1675,1676,1677,1678,1679,1680,1681,1682
1683,1684,1685,1686,1687,1688,1689,1690,1691,1692,1693,1694,1695,1696,1697,1698
1699,1700,1701,1702,1703,1704,1705,1706,1713,1714,1715,1716,1717,1718,1719,1720
1726,1727,1728,1729,1730,1731,1732,1733,1734,1735,1736,1737,1738,1739,1740,1745
1746,1747,1748,1749,1750,1751,1752,1753,1754,1755,1756,1768,1769,1770,1771,1772
1773,1774,1775,1776,1777,1778,1779,1780,1781,1782,1783,1784,1785,1786,1787,1788
1789,1790,1791,1797,1798,1799,1800,1801,1802,1803,1804,1805,1806,1807,1808,1809
1810,1811,1812,1813,1814,1820,1821,1822,1823,1824,1825,1826,1827,1828,1829,1830
1831,1839,1840,1841,1842,1843,1844,1845,1846,1849,1850,1851,1855,1856,1857,1858
1859,1860,1861,1862,1863,1864,1865,1866,1867,1868,1869,1870,1871,1878,1879,1880
1881,1882
*Elset, elset=Combined_Part-1_Set-14
 1256, 1257, 1258, 1259, 1260, 1261, 1262, 1316, 1317, 1318, 1319, 1320, 1321, 1322, 1323, 1324
 1325, 1326, 1327, 1328, 1329, 1330, 1331, 1332, 1333, 1334, 1335, 1396, 1397, 1398, 1399, 1400
 1401, 1402, 1403, 1404, 1405, 1406, 1407, 1408, 1409, 1410, 1411, 1412, 1413, 1414, 1415, 1548
 1549, 1550, 1551, 1552, 1553, 1554, 1555, 1556, 1557, 1566, 1567, 1568, 1569, 1609, 1610, 1611
 1612, 1613, 1614, 1615, 1616, 1617, 1618, 1619, 1620, 1621, 1622, 1630, 1631, 1632, 1633, 1634
 1635, 1636, 1637, 1638, 1639, 1640, 1641, 1642, 1643, 1716, 1717, 1718, 1719, 1720, 1721, 1722
 1744, 1745, 1746, 1747, 1748, 1749, 1750, 1751, 1752, 1753, 1754, 1755, 1756, 1757, 1771, 1772
 1773, 1774, 1775, 1776, 1777, 1830, 1831, 1832, 1833, 1834, 1835, 1836, 1837, 1838, 1839, 1840
 1841, 1842, 1843, 1868, 1869, 1870, 1871, 1872, 1873, 1874, 1883, 1884, 1885, 1886, 1887, 1888
 1889, 1890, 1891, 1892, 1893, 1894, 1895, 1896, 1933, 1934, 1935, 1936, 1937, 1938, 1939, 1940
 1941, 1942, 1972, 1973, 1974, 1975, 1996, 1997, 1998, 1999, 2000, 2001, 2002, 2003, 2004, 2005
 2006, 2007, 2008, 2098, 2099, 2100, 2101, 2102, 2103, 2104, 2141, 2142, 2143, 2144, 2145, 2146
*Nset, nset=Combined_Part-1_Set-15
1313,1316,1317,1444,1445,1466,1519,1563,1665,1666,1667,1722,1723,1724,1741,1742
1743,1872,1873,1874
*Elset, elset=Combined_Part-1_Set-15
 1273, 1274, 1275, 1276, 1560, 1561, 1562, 1563, 1624, 1625, 1626, 1627, 2105, 2106, 2107, 2108
*Nset, nset=Combined_Part-1_Set-16
1177,1178,1202,1203,1204,1205,1209,1210,1243,1244,1257,1258,1272,1273,1297,1298
1299,1300,1319,1320,1321,1330,1331,1332,1339,1340,1361,1362,1364,1365,1386,1387
1388,1410,1411,1424,1425,1439,1440,1442,1455,1456,1457,1469,1480,1503,1508,1509
1517,1537,1539,1540,1564,1565,1566,1580,1581,1582,1586,1596,1599,1604,1613,1615
1616,1637,1638,1652
*Elset, elset=Combined_Part-1_Set-16
 1075, 1100, 1101, 1102, 1108, 1164, 1165, 1190, 1205, 1230, 1231, 1232, 1287, 1288, 1289, 1301
 1313, 1315, 1344, 1395, 1416, 1451, 1452, 1454, 1500, 1525, 1540, 1570, 1591, 1592, 1593, 1651
 1666, 1672, 1695, 1735, 1758, 1768, 1770, 1829, 1844, 1867, 1923, 1925, 1968, 1976, 1981, 2020
 2021, 2033, 2070, 2084, 2085, 2111, 2113, 2134, 2154, 2172, 2180, 2199, 2200, 2220, 2221, 2232
** Region: (Girders_Section:AllGirder_Set), (Beam Orientation:Picked)
*Elset, elset=Combined_Part-1__I1
 1063, 1064, 1065, 1066, 1067, 1068, 1069, 1070, 1071, 1072, 1073, 1074, 1076, 1078, 1080, 1082
 1084, 1086, 1088, 1090, 1092, 1094, 1096, 1098, 1099, 1103, 1105, 1106, 1107, 1109, 1111, 1112
 1113, 1114, 1115, 1116, 1117, 1118, 1119, 1120, 1123, 1126, 1130, 1134, 1138, 1142, 1146, 1150
 1154, 1158, 1162, 1166, 1168, 1170, 1172, 1174, 1176, 1178, 1180, 1182, 1184, 1186, 1188, 1189
 1191, 1193, 1194, 1195, 1196, 1197, 1198, 1199, 1200, 1201, 1202, 1203, 1204, 1206, 1208, 1210
 1212, 1214, 1216, 1218, 1220, 1222, 1224, 1226, 1228, 1229, 1233, 1235, 1236, 1238, 1240, 1242
 1244, 1246, 1248, 1250, 1253, 1254, 1286, 1290, 1292, 1293, 1294, 1295, 1297, 1298, 1314, 1337
 1338, 1340, 1342, 1343, 1345, 1347, 1348, 1349, 1350, 1351, 1353, 1355, 1357, 1359, 1361, 1363
 1366, 1368, 1370, 1373, 1375, 1377, 1380, 1382, 1384, 1387, 1389, 1391, 1417, 1419, 1421, 1423
 1425, 1427, 1429, 1431, 1433, 1435, 1437, 1439, 1441, 1443, 1445, 1447, 1449, 1453, 1455, 1457
 1458, 1459, 1460, 1461, 1462, 1463, 1464, 1465, 1466, 1468, 1470, 1473, 1476, 1479, 1482, 1485
 1488, 1491, 1494, 1497, 1501, 1503, 1505, 1507, 1509, 1511, 1513, 1515, 1517, 1519, 1521, 1523
 1524, 1526, 1528, 1529, 1530, 1531, 1532, 1533, 1534, 1535, 1536, 1537, 1538, 1539, 1572, 1574
 1576, 1578, 1580, 1582, 1584, 1587, 1588, 1590, 1594, 1596, 1597, 1598, 1599, 1601, 1602, 1605
 1649, 1650, 1653, 1655, 1673, 1675, 1677, 1679, 1681, 1683, 1685, 1687, 1689, 1691, 1693, 1696
 1698, 1700, 1702, 1704, 1706, 1708, 1710, 1723, 1725, 1727, 1729, 1731, 1733, 1736, 1738, 1740
 1742, 1759, 1761, 1762, 1763, 1764, 1765, 1766, 1769, 1787, 1788, 1790, 1792, 1794, 1796, 1799
 1801, 1804, 1806, 1809, 1811, 1814, 1816, 1819, 1821, 1845, 1847, 1849, 1851, 1853, 1855, 1857
 1859, 1861, 1863, 1865, 1899, 1901, 1903, 1905, 1907, 1909, 1911, 1913, 1915, 1917, 1919, 1921
 1924, 1977, 1979, 1982, 1984, 1986, 1988, 1990, 2010, 2013, 2018, 2019, 2023, 2024, 2025, 2026
** ... 6 like lines cut
** Section: Girders_Section  Profile: Girders
*Beam Section, elset=Combined_Part-1__I1, material=Steel, temperature=GRADIENTS, section=I
0., 1.235, 0., 0.6, 0., 0.08, 0.08
1.,0.,0.
** Region: (Girders_Section:AllGirder_Set), (Beam Orientation:Picked)
*Elset, elset=Combined_Part-1__I2
 1075, 1164, 1165, 1205, 1395, 1416, 1499, 1500, 1540, 1672, 1695, 1735, 1829, 1844, 1867, 1968
 1976, 1981, 2033, 2070, 2084, 2085, 2111, 2113, 2134, 2154, 2172, 2180, 2199, 2200, 2220, 2221
 2232,
** Section: Girders_Section  Profile: Girders
*Beam Section, elset=Combined_Part-1__I2, material=Steel, temperature=GRADIENTS, section=I
0., 1.235, 0., 0.6, 0., 0.08, 0.08
0.,0.,1.
** Section: U_Stiffners  Profile: U_Stiffner
*Beam Section, elset=Combined_Part-1_Stiffner_Set, material=Steel, temperature=GRADIENTS, section=ARBITRARY
3, -0.125, 0., -0.125, -0.25, 0.008
0.125, -0.25, 0.008
0.125, 0., 0.008
0.,0.,-1.
** Region: (Girders_Section:AllGirder_Set), (Beam Orientation:Picked)
*Elset, elset=Combined_Part-1__I4
1100,1101,1102,1108,1190,1230,1231,1232,1287,1288,1289,1301,1313,1315,1344,1451
1452,1454,1525,1570,1591,1592,1593,1623,1651,1666,1758,1768,1770,1923,1925,2020
2021,
** Section: Girders_Section  Profile: Girders
*Beam Section, elset=Combined_Part-1__I4, material=Steel, temperature=GRADIENTS, section=I
0., 1.235, 0., 0.6, 0., 0.08, 0.08
0.,0.,1.
** Section: Diagonal_Section  Profile: Diagonal_Profile
*Beam Section, elset=Combined_Part-1__PickedSet62_#11, material=Steel, temperature=GRADIENTS, section=BOX
0.345, 0.35, 0.016, 0.016, 0.016, 0.016
1.,0.,0.
** Section: Arch_Section  Profile: Arch
*Beam Section, elset=Combined_Part-1__PickedSet60_#9, material=Steel, temperature=GRADIENTS, section=BOX
0.86, 1.3, 0.045, 0.045, 0.045, 0.045
0.,0.,-1.
** Section: Arch_Connector_Section  Profile: Arch_Connector_Profile
*Beam Section, elset=Combined_Part-1_Arch_Connector_Set, material=Steel, temperature=GRADIENTS, section=PIPE
0.2, 0.02
0.,1.,0.
** Region: (Girders_Section:AllGirder_Set), (Beam Orientation:Picked)
*Elset, elset=Combined_Part-1__I8
1302,1303,1304,1305,1306,1307,1308,1309,1310,1311,1312,1393,1394
** Section: Girders_Section  Profile: Girders
*Beam Section, elset=Combined_Part-1__I8, material=Steel, temperature=GRADIENTS, section=I
0., 1.235, 0., 0.6, 0., 0.08, 0.08
-1.,0.,0.
** Region: (Girders_Section:AllGirder_Set), (Beam Orientation:Picked)
*Elset, elset=Combined_Part-1__I9
1946,1947,1949,1951,1953,1955,1957,1959,1961,1963,1965,1967,1969
** Section: Girders_Section  Profile: Girders
*Beam Section, elset=Combined_Part-1__I9, material=Steel, temperature=GRADIENTS, section=I
0., 1.235, 0., 0.6, 0., 0.08, 0.08
1.,0.,0.
*System
*Nset, nset=Rail_for_Load_Set, generate
1009, 1164,    1
*Elset, elset=Rail_for_Load_Set, generate
 911, 1062,    1
*Nset, nset=Set-21
490,
*Nset, nset=Set-22
487,
*Nset, nset=Set-23
488,
*Nset, nset=Set-24
489,
*Nset, nset=Set-27
464,465,467,469,471,473,475,477,479,481,483,485,487,490
*Elset, elset=Set-27
 454, 492, 530, 568, 606, 644, 682, 720, 758, 796, 834, 872, 873
*Nset, nset=Set-28
463,466,468,472,474,476,478,480,482,484,486,488,489
*Nset, nset=Set-28
1222,1224,1226,1228,1230,1232,1234,1236,1238,1240,1242,1243,1329,1330
*Elset, elset=Set-28
 417, 455, 569, 645, 683, 721, 797, 835
*Elset, elset=Set-28
1302,1305,1306,1308,1312
*Nset, nset=Set-29
1440,1566,1568,1569,1570,1571,1572,1573,1574,1575,1576,1577,1578,1579
*Elset, elset=Set-29
1946,1947,1949,1951,1953,1955,1957,1959,1961,1963,1965,1967,1969
*Nset, nset=Set-30
1222,1224,1226,1228,1230,1232,1234,1236,1238,1240,1242,1243,1329,1330
*Elset, elset=Set-30
1302,1303,1304,1305,1306,1307,1308,1309,1310,1311,1312,1393,1394
*Nset, nset=Set-31
1440,1566
*Nset, nset=Set-32
1243,1330
*Nset, nset=Set-37
490,
*Nset, nset=Set-38
487,
*Nset, nset=Set-39
487,
*Nset, nset=Set-39
1330,
*Nset, nset=Set-40
487,
*Nset, nset=Set-40
1330,
*Nset, nset=Set-41
1440,
*Nset, nset=Set-42
1330,
*Nset, nset=Set-43
1243,
*Nset, nset=Set-44
490,
*Nset, nset=Set-45
1440,
*Nset, nset=Set-46
489,
*Nset, nset=Set-47
488,
*Nset, nset=Set-48
1566,
*Nset, nset=Set-51
1015,1016,1017,1018,1019,1020,1093,1094,1095,1096,1097,1098,1099,1100,1101,1102
1103,1104,1105,1106,1107,1108,1109,1110,1111,1112,1113,1114,1115,1116,1117,1118
1119,1120,1121,1122,1123,1124,1125,1126,1127,1128,1129,1130,1131,1132,1133,1134
1135,1136,1137,1138,1139,1140,1141,1142,1143,1144,1145,1146,1147,1148,1149,1150
1151,1152,1153,1154,1155,1156,1157,1158,1159,1160,1161,1162,1163,1164
*Elset, elset=Set-51, generate
 987, 1062,    1
*Nset, nset=m_Set-1
1313,1316,1445,1519
*Nset, nset=m_Set-3
1317,1444,1466,1563
*Nset, nset=m_Set-7
1222,1224,1226,1228,1230,1232,1234,1236,1238,1240,1242,1329,1568,1569,1570,1571
1572,1573,1574,1575,1576,1577,1578,1579
*Nset, nset=m_Set-13
1202,1205,1243,1297,1300,1321,1330,1332,1361,1362,1364,1386,1410,1440,1442,1457
1508,1539,1564,1566,1581,1596
*Nset, nset=m_Set-15
1165,1166,1167,1168,1169,1170,1171,1172,1173,1174,1175,1176,1177,1178,1179,1180
1181,1182,1183,1184,1185,1186,1187,1188,1189,1190,1191,1192,1193,1194,1195,1196
1197,1198,1199,1200,1201,1202,1203,1204,1205,1206,1207,1208,1209,1210,1211,1212
1213,1214,1215,1216,1217,1218,1219,1220,1221,1222,1223,1224,1225,1226,1227,1228
1229,1230,1231,1232,1233,1234,1235,1236,1237,1238,1239,1240,1241,1242,1243,1244
1245,1246,1247,1248,1249,1250,1251,1252,1253,1254,1255,1256,1257,1258,1259,1260
1261,1262,1263,1264,1265,1266,1267,1268,1269,1270,1271,1272,1273,1274,1275,1276
1277,1278,1279,1280,1281,1282,1283,1284,1285,1286,1287,1288,1289,1290,1291,1292
1293,1294,1295,1296,1297,1298,1299,1300,1301,1302,1303,1304,1305,1306,1307,1308
1309,1310,1311,1319,1320,1321,1322,1323,1324,1325,1326,1327,1328,1329,1330,1331
1332,1334,1335,1336,1337,1338,1339,1340,1341,1342,1343,1344,1345,1346,1347,1348
1349,1350,1351,1352,1353,1354,1355,1356,1357,1358,1359,1360,1361,1362,1364,1365
1366,1367,1368,1369,1370,1371,1372,1373,1374,1375,1376,1377,1378,1379,1380,1381
1382,1383,1384,1385,1386,1387,1388,1389,1390,1391,1392,1393,1394,1395,1396,1397
1398,1399,1400,1401,1402,1403,1404,1405,1406,1407,1408,1409,1410,1411,1412,1413
1414,1415,1416,1417,1418,1419,1420,1421,1422,1423,1424,1425,1426,1427,1428,1429
1430,1431,1432,1433,1434,1435,1436,1437,1438,1439,1440,1442,1447,1448,1449,1450
1451,1452,1453,1454,1455,1456,1457,1458,1459,1460,1461,1462,1463,1464,1465,1468
1469,1470,1471,1472,1473,1474,1475,1476,1477,1478,1479,1480,1481,1482,1483,1484
1485,1486,1487,1488,1489,1490,1491,1492,1493,1494,1495,1497,1498,1499,1500,1501
** ... 9 like lines cut
*Elset, elset=m_Set-15
 1063, 1064, 1065, 1066, 1067, 1068, 1069, 1070, 1071, 1072, 1073, 1074, 1075, 1076, 1078, 1080
 1082, 1084, 1086, 1088, 1090, 1092, 1094, 1096, 1098, 1099, 1100, 1101, 1102, 1103, 1105, 1106
 1107, 1108, 1109, 1111, 1112, 1113, 1114, 1115, 1116, 1117, 1118, 1119, 1120, 1123, 1126, 1130
 1134, 1138, 1142, 1146, 1150, 1154, 1158, 1162, 1164, 1165, 1166, 1168, 1170, 1172, 1174, 1176
 1178, 1180, 1182, 1184, 1186, 1188, 1189, 1190, 1191, 1193, 1194, 1195, 1196, 1197, 1198, 1199
 1200, 1201, 1202, 1203, 1204, 1205, 1206, 1208, 1210, 1212, 1214, 1216, 1218, 1220, 1222, 1224
 1226, 1228, 1229, 1230, 1231, 1232, 1233, 1235, 1236, 1238, 1240, 1242, 1244, 1246, 1248, 1250
 1253, 1254, 1286, 1287, 1288, 1289, 1290, 1292, 1293, 1294, 1295, 1297, 1298, 1301, 1302, 1303
 1304, 1305, 1306, 1307, 1308, 1309, 1310, 1311, 1312, 1313, 1314, 1315, 1337, 1338, 1340, 1342
 1343, 1344, 1345, 1347, 1348, 1349, 1350, 1351, 1353, 1355, 1357, 1359, 1361, 1363, 1366, 1368
 1370, 1373, 1375, 1377, 1380, 1382, 1384, 1387, 1389, 1391, 1393, 1394, 1395, 1416, 1417, 1419
 1421, 1423, 1425, 1427, 1429, 1431, 1433, 1435, 1437, 1439, 1441, 1443, 1445, 1447, 1449, 1451
 1452, 1453, 1454, 1455, 1457, 1458, 1459, 1460, 1461, 1462, 1463, 1464, 1465, 1466, 1468, 1470
 1473, 1476, 1479, 1482, 1485, 1488, 1491, 1494, 1497, 1499, 1500, 1501, 1503, 1505, 1507, 1509
 1511, 1513, 1515, 1517, 1519, 1521, 1523, 1524, 1525, 1526, 1528, 1529, 1530, 1531, 1532, 1533
 1534, 1535, 1536, 1537, 1538, 1539, 1540, 1570, 1572, 1574, 1576, 1578, 1580, 1582, 1584, 1587
 1588, 1590, 1591, 1592, 1593, 1594, 1596, 1597, 1598, 1599, 1601, 1602, 1605, 1623, 1649, 1650
 1651, 1653, 1655, 1666, 1672, 1673, 1675, 1677, 1679, 1681, 1683, 1685, 1687, 1689, 1691, 1693
 1695, 1696, 1698, 1700, 1702, 1704, 1706, 1708, 1710, 1723, 1725, 1727, 1729, 1731, 1733, 1735
 1736, 1738, 1740, 1742, 1758, 1759, 1761, 1762, 1763, 1764, 1765, 1766, 1768, 1769, 1770, 1787
** ... 11 like lines cut
*Nset, nset=m_Set-17
1165,1166,1167,1168,1169,1170,1171,1172,1173,1174,1175,1176,1179,1180,1181,1182
1183,1184,1185,1186,1187,1188,1189,1190,1191,1192,1193,1194,1195,1196,1197,1198
1199,1200,1201,1206,1207,1208,1211,1212,1213,1214,1215,1216,1217,1218,1219,1220
1221,1222,1223,1224,1225,1226,1227,1228,1229,1230,1231,1232,1233,1234,1235,1236
1237,1238,1239,1240,1241,1242,1245,1246,1247,1248,1249,1250,1251,1252,1253,1254
1255,1256,1259,1260,1261,1262,1263,1264,1265,1266,1267,1268,1269,1270,1271,1274
1275,1276,1277,1278,1279,1280,1281,1282,1283,1284,1285,1286,1287,1288,1289,1290
1291,1292,1293,1294,1295,1296,1301,1302,1303,1304,1305,1306,1307,1308,1309,1310
1311,1322,1323,1324,1325,1326,1327,1328,1329,1334,1335,1336,1337,1338,1341,1342
1343,1344,1345,1346,1347,1348,1349,1350,1351,1352,1353,1354,1355,1356,1357,1358
1359,1360,1366,1367,1368,1369,1370,1371,1372,1373,1374,1375,1376,1377,1378,1379
1380,1381,1382,1383,1384,1385,1389,1390,1391,1392,1393,1394,1395,1396,1397,1398
1399,1400,1401,1402,1403,1404,1405,1406,1407,1408,1409,1412,1413,1414,1415,1416
1417,1418,1419,1420,1421,1422,1423,1426,1427,1428,1429,1430,1431,1432,1433,1434
1435,1436,1437,1438,1447,1448,1449,1450,1451,1452,1453,1454,1458,1459,1460,1461
1462,1463,1464,1465,1468,1470,1471,1472,1473,1474,1475,1476,1477,1478,1479,1481
1482,1483,1484,1485,1486,1487,1488,1489,1490,1491,1492,1493,1494,1495,1497,1498
1499,1500,1501,1502,1504,1505,1506,1510,1511,1512,1513,1514,1515,1516,1520,1521
1522,1523,1524,1525,1526,1527,1528,1529,1530,1531,1532,1533,1534,1535,1536,1541
1542,1543,1544,1545,1546,1547,1548,1549,1550,1551,1552,1553,1554,1555,1556,1557
** ... 5 like lines cut
*Nset, nset=m_Set-19
1202,1205,1243,1272,1297,1300,1321,1330,1332,1361,1362,1364,1387,1440,1442,1457
1508,1539,1564,1566,1581,1596
*Nset, nset=m_Set-25, generate
   1,  462,    1
*Elset, elset=m_Set-25, generate
   1,  416,    1
*Nset, nset=m_Set-33
1165,1166,1167,1168,1169,1170,1171,1172,1173,1174,1175,1176,1179,1180,1181,1182
1183,1184,1185,1186,1187,1188,1189,1190,1191,1192,1193,1194,1195,1196,1197,1198
1199,1200,1201,1206,1207,1208,1211,1212,1213,1214,1215,1216,1217,1218,1219,1220
1221,1222,1223,1224,1225,1226,1227,1228,1229,1230,1231,1232,1233,1234,1235,1236
1237,1238,1239,1240,1241,1242,1245,1246,1247,1248,1249,1250,1251,1252,1253,1254
1255,1256,1259,1260,1261,1262,1263,1264,1265,1266,1267,1268,1269,1270,1271,1274
1275,1276,1277,1278,1279,1280,1281,1282,1283,1284,1285,1286,1287,1288,1289,1290
1291,1292,1293,1294,1295,1296,1301,1302,1303,1304,1305,1306,1307,1308,1309,1310
1311,1322,1323,1324,1325,1326,1327,1328,1329,1334,1335,1336,1337,1338,1341,1342
1343,1344,1345,1346,1347,1348,1349,1350,1351,1352,1353,1354,1355,1356,1357,1358
1359,1360,1366,1367,1368,1369,1370,1371,1372,1373,1374,1375,1376,1377,1378,1379
1380,1381,1382,1383,1384,1385,1389,1390,1391,1392,1393,1394,1395,1396,1397,1398
1399,1400,1401,1402,1403,1404,1405,1406,1407,1408,1409,1412,1413,1414,1415,1416
1417,1418,1419,1420,1421,1422,1423,1426,1427,1428,1429,1430,1431,1432,1433,1434
1435,1436,1437,1438,1447,1448,1449,1450,1451,1452,1453,1454,1458,1459,1460,1461
1462,1463,1464,1465,1468,1470,1471,1472,1473,1474,1475,1476,1477,1478,1479,1481
1482,1483,1484,1485,1486,1487,1488,1489,1490,1491,1492,1493,1494,1495,1497,1498
1499,1500,1501,1502,1504,1505,1506,1510,1511,1512,1513,1514,1515,1516,1520,1521
1522,1523,1524,1525,1526,1527,1528,1529,1530,1531,1532,1533,1534,1535,1536,1541
1542,1543,1544,1545,1546,1547,1548,1549,1550,1551,1552,1553,1554,1555,1556,1557
** ... 5 like lines cut
*Nset, nset=m_Set-35
1165,1166,1167,1168,1169,1170,1171,1172,1173,1174,1175,1176,1177,1178,1179,1180
1181,1182,1183,1184,1185,1186,1187,1188,1189,1190,1191,1192,1193,1194,1195,1196
1197,1198,1199,1200,1201,1202,1203,1204,1205,1206,1207,1208,1209,1210,1211,1212
1213,1214,1215,1216,1217,1218,1219,1220,1221,1222,1223,1224,1225,1226,1227,1228
1229,1230,1231,1232,1233,1234,1235,1236,1237,1238,1239,1240,1241,1242,1243,1244
1245,1246,1247,1248,1249,1250,1251,1252,1253,1254,1255,1256,1257,1258,1259,1260
1261,1262,1263,1264,1265,1266,1267,1268,1269,1270,1271,1272,1273,1274,1275,1276
1277,1278,1279,1280,1281,1282,1283,1284,1285,1286,1287,1288,1289,1290,1291,1292
1293,1294,1295,1296,1297,1298,1299,1300,1301,1302,1303,1304,1305,1306,1307,1308
1309,1310,1311,1319,1320,1321,1322,1323,1324,1325,1326,1327,1328,1329,1330,1331
1332,1334,1335,1336,1337,1338,1339,1340,1341,1342,1343,1344,1345,1346,1347,1348
1349,1350,1351,1352,1353,1354,1355,1356,1357,1358,1359,1360,1361,1362,1364,1365
1366,1367,1368,1369,1370,1371,1372,1373,1374,1375,1376,1377,1378,1379,1380,1381
1382,1383,1384,1385,1386,1387,1388,1389,1390,1391,1392,1393,1394,1395,1396,1397
1398,1399,1400,1401,1402,1403,1404,1405,1406,1407,1408,1409,1410,1411,1412,1413
1414,1415,1416,1417,1418,1419,1420,1421,1422,1423,1424,1425,1426,1427,1428,1429
1430,1431,1432,1433,1434,1435,1436,1437,1438,1439,1440,1442,1447,1448,1449,1450
1451,1452,1453,1454,1455,1456,1457,1458,1459,1460,1461,1462,1463,1464,1465,1468
1469,1470,1471,1472,1473,1474,1475,1476,1477,1478,1479,1480,1481,1482,1483,1484
1485,1486,1487,1488,1489,1490,1491,1492,1493,1494,1495,1497,1498,1499,1500,1501
** ... 9 like lines cut
*Elset, elset=m_Set-35
 1063, 1064, 1065, 1066, 1067, 1068, 1069, 1070, 1071, 1072, 1073, 1074, 1075, 1076, 1078, 1080
 1082, 1084, 1086, 1088, 1090, 1092, 1094, 1096, 1098, 1099, 1100, 1101, 1102, 1103, 1105, 1106
 1107, 1108, 1109, 1111, 1112, 1113, 1114, 1115, 1116, 1117, 1118, 1119, 1120, 1123, 1126, 1130
 1134, 1138, 1142, 1146, 1150, 1154, 1158, 1162, 1164, 1165, 1166, 1168, 1170, 1172, 1174, 1176
 1178, 1180, 1182, 1184, 1186, 1188, 1189, 1190, 1191, 1193, 1194, 1195, 1196, 1197, 1198, 1199
 1200, 1201, 1202, 1203, 1204, 1205, 1206, 1208, 1210, 1212, 1214, 1216, 1218, 1220, 1222, 1224
 1226, 1228, 1229, 1230, 1231, 1232, 1233, 1235, 1236, 1238, 1240, 1242, 1244, 1246, 1248, 1250
 1253, 1254, 1286, 1287, 1288, 1289, 1290, 1292, 1293, 1294, 1295, 1297, 1298, 1301, 1302, 1303
 1304, 1305, 1306, 1307, 1308, 1309, 1310, 1311, 1312, 1313, 1314, 1315, 1337, 1338, 1340, 1342
 1343, 1344, 1345, 1347, 1348, 1349, 1350, 1351, 1353, 1355, 1357, 1359, 1361, 1363, 1366, 1368
 1370, 1373, 1375, 1377, 1380, 1382, 1384, 1387, 1389, 1391, 1393, 1394, 1395, 1416, 1417, 1419
 1421, 1423, 1425, 1427, 1429, 1431, 1433, 1435, 1437, 1439, 1441, 1443, 1445, 1447, 1449, 1451
 1452, 1453, 1454, 1455, 1457, 1458, 1459, 1460, 1461, 1462, 1463, 1464, 1465, 1466, 1468, 1470
 1473, 1476, 1479, 1482, 1485, 1488, 1491, 1494, 1497, 1499, 1500, 1501, 1503, 1505, 1507, 1509
 1511, 1513, 1515, 1517, 1519, 1521, 1523, 1524, 1525, 1526, 1528, 1529, 1530, 1531, 1532, 1533
 1534, 1535, 1536, 1537, 1538, 1539, 1540, 1570, 1572, 1574, 1576, 1578, 1580, 1582, 1584, 1587
 1588, 1590, 1591, 1592, 1593, 1594, 1596, 1597, 1598, 1599, 1601, 1602, 1605, 1623, 1649, 1650
 1651, 1653, 1655, 1666, 1672, 1673, 1675, 1677, 1679, 1681, 1683, 1685, 1687, 1689, 1691, 1693
 1695, 1696, 1698, 1700, 1702, 1704, 1706, 1708, 1710, 1723, 1725, 1727, 1729, 1731, 1733, 1735
 1736, 1738, 1740, 1742, 1758, 1759, 1761, 1762, 1763, 1764, 1765, 1766, 1768, 1769, 1770, 1787
** ... 11 like lines cut
*Nset, nset=s_Set-1
1313,1316,1445,1519
*Nset, nset=s_Set-3
1317,1444,1466,1563
*Nset, nset=s_Set-5
1222,1224,1226,1228,1230,1232,1234,1236,1238,1240,1242,1329,1568,1569,1570,1571
1572,1573,1574,1575,1576,1577,1578,1579
*Nset, nset=s_Set-7
   2,   3,   5,   6,   7,   8,   9,  10,  11,  12,  13,  14,  15,  16,  17,  18
  19,  20,  21,  22,  23,  24,  25,  26,  29,  31,  32,  33,  34,  35,  36,  37
  38,  39,  40,  41,  43,  45,  46,  47,  48,  49,  50,  51,  52,  53,  54,  55
  57,  59,  60,  61,  62,  63,  64,  65,  66,  67,  68,  69,  71,  73,  74,  75
  76,  77,  78,  79,  80,  81,  82,  83,  85,  87,  88,  89,  90,  91,  92,  93
  94,  95,  96,  97,  99, 101, 102, 103, 104, 105, 106, 107, 108, 109, 110, 111
 113, 115, 116, 117, 118, 119, 120, 121, 122, 123, 124, 125, 127, 129, 130, 131
 132, 133, 134, 135, 136, 137, 138, 139, 141, 143, 144, 145, 146, 147, 148, 149
 150, 151, 152, 153, 155, 157, 158, 159, 160, 161, 162, 163, 164, 165, 166, 167
 169, 171, 172, 173, 174, 175, 176, 177, 178, 179, 180, 181, 183, 185, 186, 187
 188, 189, 190, 191, 192, 193, 194, 195, 197, 199, 200, 201, 202, 203, 204, 205
 206, 207, 208, 209, 211, 213, 214, 215, 216, 217, 218, 219, 220, 221, 222, 223
 225, 227, 228, 229, 230, 231, 232, 233, 234, 235, 236, 237, 239, 241, 242, 243
 244, 245, 246, 247, 248, 249, 250, 251, 253, 255, 256, 257, 258, 259, 260, 261
 262, 263, 264, 265, 267, 269, 270, 271, 272, 273, 274, 275, 276, 277, 278, 279
 281, 283, 284, 285, 286, 287, 288, 289, 290, 291, 292, 293, 295, 297, 298, 299
 300, 301, 302, 303, 304, 305, 306, 307, 309, 311, 312, 313, 314, 315, 316, 317
 318, 319, 320, 321, 323, 325, 326, 327, 328, 329, 330, 331, 332, 333, 334, 335
 337, 339, 340, 341, 342, 343, 344, 345, 346, 347, 348, 349, 351, 353, 354, 355
 356, 357, 358, 359, 360, 361, 362, 363, 365, 367, 368, 369, 370, 371, 372, 373
** ... 5 like lines cut
*Elset, elset=s_Set-7, generate
   1,  416,    1
*Nset, nset=s_Set-9, generate
 435,  462,    1
*Elset, elset=s_Set-9, generate
 391,  416,    1
*Nset, nset=s_Set-11, generate
   1,  462,    1
*Elset, elset=s_Set-11, generate
   1,  416,    1
*Nset, nset=s_Set-15, generate
   1,  462,    1
*Elset, elset=s_Set-15, generate
   1,  416,    1
*Nset, nset=s_Set-17
1222,1224,1226,1228,1230,1232,1234,1236,1238,1240,1242,1329,1568,1569,1570,1571
1572,1573,1574,1575,1576,1577,1578,1579
*Nset, nset=s_Set-19
1202,1205,1243,1297,1300,1321,1330,1332,1361,1362,1364,1386,1410,1440,1442,1457
1508,1539,1564,1566,1581,1596
*Nset, nset=s_Set-25, generate
 463, 1008,    1
*Elset, elset=s_Set-25, generate
 417,  910,    1
*Nset, nset=s_Set-33
1222,1224,1226,1228,1230,1232,1234,1236,1238,1240,1242,1329,1568,1569,1570,1571
1572,1573,1574,1575,1576,1577,1578,1579
*Nset, nset=s_Set-36
1165,1166,1167,1168,1169,1170,1171,1172,1173,1174,1175,1176,1179,1180,1181,1182
1183,1184,1185,1186,1187,1188,1189,1190,1191,1192,1193,1194,1195,1196,1197,1198
1199,1200,1201,1206,1207,1208,1211,1212,1213,1214,1215,1216,1217,1218,1219,1220
1221,1222,1223,1224,1225,1226,1227,1228,1229,1230,1231,1232,1233,1234,1235,1236
1237,1238,1239,1240,1241,1242,1245,1246,1247,1248,1249,1250,1251,1252,1253,1254
1255,1256,1259,1260,1261,1262,1263,1264,1265,1266,1267,1268,1269,1270,1271,1274
1275,1276,1277,1278,1279,1280,1281,1282,1283,1284,1285,1286,1287,1288,1289,1290
1291,1292,1293,1294,1295,1296,1301,1302,1303,1304,1305,1306,1307,1308,1309,1310
1311,1322,1323,1324,1325,1326,1327,1328,1329,1334,1335,1336,1337,1338,1341,1342
1343,1344,1345,1346,1347,1348,1349,1350,1351,1352,1353,1354,1355,1356,1357,1358
1359,1360,1366,1367,1368,1369,1370,1371,1372,1373,1374,1375,1376,1377,1378,1379
1380,1381,1382,1383,1384,1385,1389,1390,1391,1392,1393,1394,1395,1396,1397,1398
1399,1400,1401,1402,1403,1404,1405,1406,1407,1408,1409,1412,1413,1414,1415,1416
1417,1418,1419,1420,1421,1422,1423,1426,1427,1428,1429,1430,1431,1432,1433,1434
1435,1436,1437,1438,1447,1448,1449,1450,1451,1452,1453,1454,1458,1459,1460,1461
1462,1463,1464,1465,1468,1470,1471,1472,1473,1474,1475,1476,1477,1478,1479,1481
1482,1483,1484,1485,1486,1487,1488,1489,1490,1491,1492,1493,1494,1495,1497,1498
1499,1500,1501,1502,1504,1505,1506,1510,1511,1512,1513,1514,1515,1516,1520,1521
1522,1523,1524,1525,1526,1527,1528,1529,1530,1531,1532,1533,1534,1535,1536,1541
1542,1543,1544,1545,1546,1547,1548,1549,1550,1551,1552,1553,1554,1555,1556,1557
** ... 5 like lines cut
*Elset, elset=s_Set-36
 1077, 1079, 1081, 1083, 1085, 1087, 1089, 1091, 1093, 1095, 1097, 1104, 1110, 1121, 1122, 1124
 1125, 1127, 1128, 1129, 1131, 1132, 1133, 1135, 1136, 1137, 1139, 1140, 1141, 1143, 1144, 1145
 1147, 1148, 1149, 1151, 1152, 1153, 1155, 1156, 1157, 1159, 1160, 1161, 1163, 1167, 1169, 1171
 1173, 1175, 1177, 1179, 1181, 1183, 1185, 1187, 1192, 1207, 1209, 1211, 1213, 1215, 1217, 1219
 1221, 1223, 1225, 1227, 1234, 1237, 1239, 1241, 1243, 1245, 1247, 1249, 1251, 1252, 1255, 1291
 1296, 1299, 1300, 1336, 1339, 1341, 1346, 1352, 1354, 1356, 1358, 1360, 1362, 1364, 1365, 1367
 1369, 1371, 1372, 1374, 1376, 1378, 1379, 1381, 1383, 1385, 1386, 1388, 1390, 1392, 1418, 1420
 1422, 1424, 1426, 1428, 1430, 1432, 1434, 1436, 1438, 1440, 1442, 1444, 1446, 1448, 1450, 1456
 1467, 1469, 1471, 1472, 1474, 1475, 1477, 1478, 1480, 1481, 1483, 1484, 1486, 1487, 1489, 1490
 1492, 1493, 1495, 1496, 1498, 1502, 1504, 1506, 1508, 1510, 1512, 1514, 1516, 1518, 1520, 1522
 1527, 1571, 1573, 1575, 1577, 1579, 1581, 1583, 1585, 1586, 1589, 1595, 1600, 1603, 1604, 1606
 1607, 1608, 1648, 1652, 1654, 1656, 1657, 1665, 1667, 1668, 1669, 1670, 1671, 1674, 1676, 1678
 1680, 1682, 1684, 1686, 1688, 1690, 1692, 1694, 1697, 1699, 1701, 1703, 1705, 1707, 1709, 1711
 1724, 1726, 1728, 1730, 1732, 1734, 1737, 1739, 1741, 1743, 1760, 1767, 1786, 1789, 1791, 1793
 1795, 1797, 1798, 1800, 1802, 1803, 1805, 1807, 1808, 1810, 1812, 1813, 1815, 1817, 1818, 1820
 1822, 1823, 1824, 1825, 1826, 1827, 1828, 1846, 1848, 1850, 1852, 1854, 1856, 1858, 1860, 1862
 1864, 1866, 1900, 1902, 1904, 1906, 1908, 1910, 1912, 1914, 1916, 1918, 1920, 1922, 1945, 1948
 1950, 1952, 1954, 1956, 1958, 1960, 1962, 1964, 1966, 1978, 1980, 1983, 1985, 1987, 1989, 1991
 2009, 2011, 2012, 2014, 2015, 2016, 2017, 2022, 2027, 2029, 2031, 2032, 2035, 2037, 2039, 2041
 2043, 2045, 2047, 2049, 2051, 2054, 2056, 2058, 2060, 2062, 2064, 2066, 2068, 2072, 2074, 2076
** ... 4 like lines cut
*Nset, nset=s_Set-49, generate
1009, 1164,    1
*Elset, elset=s_Set-49, generate
 911, 1062,    1
*Elset, elset=_Surf-5_END1, generate
 987, 1044,   19
*Surface, type=ELEMENT, name=Surf-5
_Surf-5_END1, END1
*Elset, elset=_Surf-6_END2, generate
1005, 1062,   19
*Surface, type=ELEMENT, name=Surf-6
_Surf-6_END2, END2
*Elset, elset=_Surf-7_END1
987,
*Surface, type=ELEMENT, name=Surf-7
_Surf-7_END1, END1
*Elset, elset=_Surf-8_END1
1025,
*Surface, type=ELEMENT, name=Surf-8
_Surf-8_END1, END1
*Elset, elset=_Surf-9_SNEG, generate
 835,  872,    1
*Surface, type=ELEMENT, name=Surf-9
_Surf-9_SNEG, SNEG
*Elset, elset=_m_Surf-1_SPOS, generate
   1,  416,    1
*Surface, type=ELEMENT, name=m_Surf-1
_m_Surf-1_SPOS, SPOS
*Elset, elset=_m_Surf-5_SNEG, generate
   1,  416,    1
*Surface, type=ELEMENT, name=m_Surf-5
_m_Surf-5_SNEG, SNEG
*Elset, elset=_s_Surf-1_SPOS, generate
 417,  910,    1
*Surface, type=ELEMENT, name=s_Surf-1
_s_Surf-1_SPOS, SPOS
*Elset, elset=_s_Surf-3_SPOS, generate
   1,  416,    1
*Surface, type=ELEMENT, name=s_Surf-3
_s_Surf-3_SPOS, SPOS
*Surface, type=NODE, name=m_Set-35_CNS_
m_Set-35, 1.
*Surface, type=NODE, name=m_Set-25_CNS_
m_Set-25, 1.
*Surface, type=NODE, name=s_Set-25_CNS_
s_Set-25, 1.
*Surface, type=NODE, name=s_Set-49_CNS_
s_Set-49, 1.
** Constraint: Constraint-5
*Tie, name=Constraint-5, adjust=yes
s_Surf-3, m_Set-35_CNS_
** Constraint: Constraint-8
*Tie, name=Constraint-8, adjust=yes
s_Set-25_CNS_, m_Set-25_CNS_
** Constraint: Constraint-9
*Tie, name=Constraint-9, adjust=yes
s_Set-49_CNS_, m_Surf-5
*Amplitude, name=Amp-1, definition=EQUALLY SPACED, fixed interval=1.
             1.,              1.
** 
** MATERIALS
** 
*Material, name=Ballast
*Damping, alpha=0.7, beta=0.5
*Density
1900.,
*Elastic
 5.5e+08, 0.33
*Material, name=Rail_Steel
*Damping, alpha=0.7, beta=0.5
*Density
6470.,
*Elastic
 2.1e+11, 0.3
*Material, name=Steel
*Damping, alpha=0.7, beta=0.5
*Density
7750.,
*Elastic
 2.1e+11, 0.3
** 
** BOUNDARY CONDITIONS
** 
** Name: BC-1 Type: Displacement/Rotation
*Boundary
Set-48, 1, 1
Set-48, 2, 2
Set-48, 3, 3
** Name: BC-3 Type: Displacement/Rotation
*Boundary
Set-41, 1, 1
Set-41, 2, 2
** Name: BC-4 Type: Displacement/Rotation
*Boundary
Set-42, 2, 2
Set-42, 3, 3
** Name: BC-5 Type: Displacement/Rotation
*Boundary
Set-43, 2, 2
** ----------------------------------------------------------------
** 
** STEP: Step-2
** 
*Step, name=Step-2, nlgeom=NO
*Static, direct
1., 1., 
** 
** LOADS
** 
** Name: Load-2   Type: Line load
*Dload
Rail_for_Load_Set, PY, -10000.
** 
** OUTPUT REQUESTS
** 
*Restart, write, frequency=0
** 
** FIELD OUTPUT: F-Output-2
** 
*Output, field
*Node Output
CF, RF, RM, RT, TF, U, UR, UT
V, VF, VR, VT
*Element Output, directions=YES
ALPHA, ALPHAN, BF, CENTMAG, CENTRIFMAG, CORIOMAG, CS11, CTSHR, E, EE, EEQUT, ER, ESF1, GRAV, HP, IE
LE, LODE, MISES, MISESMAX, MISESONLY, NE, NFORC, NFORCSO, P, PE, PEEQ, PEEQMAX, PEEQT, PEMAG, PEQC, PRESSONLY
PS, ROTAMAG, S, SALPHA, SE, SEE, SEP, SEPE, SEQUT, SF, SPE, SQEQ, SSAVG, TE, TEEQ, TEVOL
THE, TRIAX, TRNOR, TRSHR, TSHR, VE, VEEQ, VS, YIELDPOT
** 
** HISTORY OUTPUT: H-Output-2
** 
*Output, history, variable=PRESELECT
*End Step
